Version 4.1
SHEET 1 2888 1592
WIRE 336 -32 -448 -32
WIRE 512 -32 336 -32
WIRE 512 -16 512 -32
WIRE 336 32 336 -32
WIRE 368 32 336 32
WIRE -448 64 -448 -32
WIRE 336 128 336 32
WIRE 368 128 336 128
WIRE 672 128 656 128
WIRE 928 128 752 128
WIRE 208 224 128 224
WIRE 368 224 288 224
WIRE 688 224 656 224
WIRE 784 224 688 224
WIRE 928 224 928 128
WIRE 928 224 864 224
WIRE 1120 224 928 224
WIRE 1248 224 1120 224
WIRE 1408 224 1248 224
WIRE 1440 224 1408 224
WIRE 1584 224 1440 224
WIRE 1744 224 1664 224
WIRE 1904 224 1744 224
WIRE 2016 224 1904 224
WIRE 928 240 928 224
WIRE -448 256 -448 144
WIRE 2016 256 2016 224
WIRE 128 272 128 224
WIRE 1904 272 1904 224
WIRE 1408 304 1408 224
WIRE 368 320 144 320
WIRE 928 320 928 304
WIRE 928 320 656 320
WIRE 1744 320 1744 304
WIRE 1248 336 1248 224
WIRE 1120 368 1120 224
WIRE 336 416 272 416
WIRE 368 416 336 416
WIRE 704 416 656 416
WIRE 832 416 704 416
WIRE 272 432 272 416
WIRE 832 464 832 416
WIRE 1120 464 1120 448
WIRE 1120 464 832 464
WIRE 144 480 144 320
WIRE 144 480 48 480
WIRE 1120 480 1120 464
WIRE 272 512 272 496
WIRE 336 512 336 416
WIRE 368 512 336 512
WIRE 688 512 656 512
WIRE 832 512 688 512
WIRE 912 512 832 512
WIRE 1248 512 1248 400
WIRE 144 528 144 480
WIRE 912 528 912 512
WIRE 48 544 48 480
WIRE 832 544 832 512
WIRE 1120 576 1120 560
WIRE 144 608 144 592
WIRE 336 608 336 512
WIRE 368 608 336 608
WIRE 688 608 656 608
WIRE 832 624 832 608
WIRE 912 624 912 608
WIRE 512 688 512 672
WIRE 48 736 48 608
WIRE 144 736 144 688
WIRE 144 736 48 736
WIRE 144 752 144 736
FLAG 512 688 0
FLAG 912 624 0
FLAG 832 624 0
FLAG 688 224 SW
FLAG 704 416 PGFB
FLAG 688 512 SET
FLAG -448 256 0
FLAG 144 752 0
FLAG 128 272 0
FLAG 1248 512 0
FLAG 1440 224 VOUT1
FLAG 272 512 0
FLAG 1120 576 0
FLAG 1488 416 0
FLAG 1408 448 0
FLAG 1744 384 0
FLAG 1904 336 0
FLAG 2016 336 0
FLAG 2016 224 VLDO
FLAG 2608 320 0
FLAG 2560 304 SET
FLAG 2832 320 0
FLAG 2784 304 SET
FLAG 2560 256 VOUT1
FLAG 2784 256 VLDO
FLAG 2608 240 out1
FLAG 2832 240 out2
SYMBOL cap 848 544 M0
WINDOW 0 34 12 Left 2
WINDOW 3 34 52 Left 2
SYMATTR InstName C1
SYMATTR Value 0.1µ
SYMBOL voltage -448 48 M0
WINDOW 0 45 50 Left 2
WINDOW 3 42 88 Left 2
SYMATTR InstName Vin1
SYMATTR Value 12V
SYMBOL res 160 592 M0
WINDOW 3 -19 77 Right 2
WINDOW 0 -21 50 Right 2
SYMATTR Value 1.33k
SYMATTR InstName Rth1
SYMBOL cap 64 544 M0
WINDOW 3 41 44 Left 2
WINDOW 0 41 14 Left 2
SYMATTR Value 180p
SYMATTR InstName Cthp1
SYMBOL cap 128 592 M180
WINDOW 0 54 45 Left 2
WINDOW 3 51 18 Left 2
SYMATTR InstName Cth1
SYMATTR Value 10n
SYMBOL res 192 240 R270
WINDOW 0 32 56 VTop 2
WINDOW 3 0 56 VBottom 2
SYMATTR InstName Rfreq1
SYMATTR Value 47k
SYMBOL cap 1232 336 R0
WINDOW 3 56 46 Left 2
WINDOW 123 56 72 Left 2
WINDOW 0 57 22 Left 2
SYMATTR Value 39.162µ
SYMATTR Value2 x4
SYMATTR InstName Coc1
SYMATTR SpiceLine Rser=2.17m Lser=0.2n
SYMBOL ind 848 -16 R270
WINDOW 0 52 60 VTop 2
WINDOW 3 -28 52 VBottom 2
SYMATTR InstName L1
SYMATTR Value 2.2µH
SYMATTR SpiceLine Rser=19.5m
SYMBOL res 896 512 R0
WINDOW 0 58 48 Left 2
WINDOW 3 48 89 Left 2
SYMATTR InstName Riset1
SYMATTR Value 59k
SYMBOL cap 288 432 M0
WINDOW 0 51 19 Left 2
WINDOW 3 48 55 Left 2
SYMATTR InstName C2
SYMATTR Value 1µF
SYMBOL res 768 112 R90
WINDOW 0 -45 60 VBottom 2
WINDOW 3 -36 56 VTop 2
SYMATTR InstName R3
SYMATTR Value 100k
SYMBOL PowerProducts\\LT8624S 512 288 R0
SYMATTR InstName U1
SYMBOL res 1104 576 M180
WINDOW 0 36 76 Left 2
WINDOW 3 36 40 Left 2
SYMATTR InstName R2
SYMATTR Value 1k
SYMBOL res 1104 464 M180
WINDOW 0 36 76 Left 2
WINDOW 3 36 40 Left 2
SYMATTR InstName R1
SYMATTR Value 10.7k
SYMBOL res 1472 320 R0
SYMATTR InstName R4
SYMATTR Value '6/0.01'
SYMBOL fra 928 304 R0
SYMATTR InstName @1
SYMATTR SpiceLine delay=1m fstart=1.875K fend=480K oct=2 fcoarse=15K pp0=192m pp1=12m f0=1.875K f1=30K tavgmin=50µ tsettle=33.3333µ
SYMBOL cap 1392 384 R0
SYMATTR InstName C3
SYMATTR Value 22µ
SYMATTR SpiceLine Rser=40m Lser=1.7n
SYMBOL res 1392 288 R0
SYMATTR InstName R5
SYMATTR Value 0.5
SYMBOL cap 1728 320 R0
SYMATTR InstName C4
SYMATTR Value 100µ
SYMATTR SpiceLine Rser=80m Lser=3n
SYMBOL res 1728 208 R0
SYMATTR InstName R6
SYMATTR Value 0.22
SYMBOL cap 1888 272 R0
SYMATTR InstName C5
SYMATTR Value 10µ
SYMATTR SpiceLine Rser=3m Lser=0.5n
SYMBOL res 2000 240 R0
SYMATTR InstName R7
SYMATTR Value '6/3'
SYMBOL e 2608 224 R0
SYMATTR InstName E1
SYMATTR Value 1
SYMBOL e 2832 224 R0
SYMATTR InstName E2
SYMATTR Value 1
SYMBOL Coilcraft\\Power_Inductors\\XGL4020 784 224 R0
SYMATTR SpiceModel XGL4020-222_sat
SYMATTR InstName U2
SYMBOL Coilcraft\\Power_Inductors\\XGL4020 1584 224 R0
SYMATTR SpiceModel XGL4020-102_sat
SYMATTR InstName U3
TEXT -312 -496 Left 4 ;LT8624S - 18V, 4A Synchronous Step-Down Silent Switcher with Ultralow Noise Reference
TEXT 656 752 Left 2 ;.tran 5m startup
TEXT 1752 -384 Left 2 ;Designer:
TEXT 1752 -432 Left 2 ;Date:
TEXT 1752 -480 Left 2 ;ProjectName:
TEXT 656 784 Left 2 !.fra startup
TEXT 1792 504 Left 2 !*.options plotwinsize = 0
TEXT 1000 40 Left 2 ;7.19pF Cpar
